   12
 CCSD/CC-PVDZ  ENERGY=-231.54604458
 C          0.1669048161       -1.3960409438        0.0004259008
 C         -1.1255546043       -0.8425643118        0.0005156376
 C         -1.2924594155        0.5534765466       -0.0001304860
 C         -0.1669047614        1.3960405836       -0.0005142176
 C          1.1255545679        0.8425642659        0.0001738626
 C          1.2924594506       -0.5534767464        0.0002991077
 H          0.2970044154       -2.4842313184        0.0020909630
 H         -2.0029063788       -1.4993294722        0.0007710594
 H         -2.2999107642        0.9849026577       -0.0003209795
 H         -0.2970042864        2.4842319649       -0.0012069892
 H          2.0029063283        1.4993294350       -0.0001962795
 H          2.2999106322       -0.9849026612        0.0010924208
