    14
 CCSD/H=CC-PVDZ,C=CC-PVDZ,O=CC-PVDZ,N=CC-PVDZ  ENERGY=-435.55757571
 N          1.6602856114       -0.0000101637        0.0010654358
 O          2.2203633151       -1.0849022046        0.0012997075
 O          2.2203660029        1.0848817670        0.0011639445
 C          0.1760220229       -0.0000081152        0.0003748415
 C         -0.4974803912       -1.2279396924       -0.0004561853
 C         -1.9012611378       -1.2189795196       -0.0012079010
 C         -2.6021620063       -0.0000050574       -0.0006942048
 C         -1.9012590629        1.2189680594        0.0002152495
 C         -0.4974780021        1.2279253068        0.0007340345
 H          0.0737283493       -2.1584227229       -0.0009811023
 H         -2.4476726362       -2.1678496005       -0.0018377274
 H         -3.6975156567       -0.0000038617       -0.0012944231
 H         -2.4476696116        2.1678390831        0.0007802782
 H          0.0737332032        2.1584067216        0.0016380524

