 15 
 CCSD/H=CC-PVDZ,C=CC-PVDZ,O=CC-PVDZ  ENERGY=-531.51778404
 C          1.1932730005       -1.1458186552       -0.0009174921
 C         -0.2334740895       -0.6970690430       -0.0004933960
 C         -0.2334563331        0.6970565776        0.0001565027
 C          1.1933022433        1.1457698773        0.0000865219
 O          1.6542532203        2.2498736740        0.0003465868
 O          1.9902669246       -0.0000333559       -0.0002658783
 C         -1.4205431739        1.4373937930        0.0006887586
 C         -2.6228363181        0.7071879770        0.0004936226
 C         -2.6228542873       -0.7071403353       -0.0001349500
 C         -1.4205798098       -1.4373763756       -0.0008335939
 O          1.6541974046       -2.2499324770        0.0004497091
 H         -1.4076877499        2.5315556835        0.0013182541
 H         -3.5796887799        1.2404044234        0.0010007329
 H         -3.5797197667       -1.2403332172       -0.0002891633
 H         -1.4077524851       -2.5315385466       -0.0014062152
