18
Energy =
N    -1.2025219   -1.3188569    0.0007384 
C    -2.4085837   -0.7176722    0.0003639 
C    -2.4598813    0.6773537   -0.0002472 
C    -1.2771429    1.4015625   -0.0002156 
C     0.0046461    0.7826023    0.0001571 
C     1.2228665    1.4784166    0.0000384 
B     2.5311116    0.7403142   -0.0001137 
C     2.4252413   -0.7956522   -0.0002321 
C     1.1980546   -1.4301713    0.0001726 
C     0.0070640   -0.6744757    0.0004264 
H    -1.1683488   -2.3381919    0.0011202 
H    -3.2818861   -1.3650015    0.0005831 
H    -3.4294131    1.1730141   -0.0007315 
H    -1.3136358    2.4931339   -0.0005594 
H     1.1376820    2.5708392   -0.0001333 
H     3.6022121    1.2950037   -0.0002502 
H     3.3054134   -1.4478620   -0.0006603 
H     1.1072219   -2.5243564    0.0001435 
