18
Energy =
N    -1.2034592   -1.3851988    0.0008305 
B    -2.4867970   -0.7542254    0.0002847 
C    -2.4640232    0.7715226   -0.0003652 
C    -1.2564300    1.4167052   -0.0001353 
C    -0.0028130    0.7118884    0.0002272 
C     1.2387315    1.3883063   -0.0000038 
C     2.4391319    0.6963277   -0.0002102 
C     2.4317673   -0.7112367   -0.0002135 
C     1.2321052   -1.4072669    0.0002090 
C     0.0058200   -0.7134151    0.0005029 
H    -1.1239895   -2.4003194    0.0013315 
H    -3.4592287   -1.4580497    0.0004199 
H    -3.3733181    1.3773675   -0.0008922 
H    -1.1965612    2.5109592   -0.0003698 
H     1.2323650    2.4805862   -0.0001382 
H     3.3860286    1.2370512   -0.0004476 
H     3.3741896   -1.2608457   -0.0005833 
H     1.2265807   -2.5001567    0.0001533 
