18
Energy =
B    -1.2979040   -1.5203183    0.0010706 
C    -2.5378521   -0.6815968    0.0003140 
C    -2.4049295    0.7121187   -0.0003429 
C    -1.1762563    1.3527433   -0.0002560 
N     0.0110845    0.6601799    0.0001538 
C     1.2052307    1.3711758   -0.0000423 
C     2.4169919    0.7435982   -0.0002883 
C     2.4822533   -0.6714122   -0.0003290 
C     1.2968865   -1.3731278    0.0002430 
C     0.0244178   -0.7522576    0.0006073 
H    -1.2627603   -2.7237333    0.0018366 
H    -3.5548768   -1.0831156    0.0001516 
H    -3.2808937    1.3675679   -0.0009339 
H    -1.0762147    2.4361446   -0.0005377 
H     1.0970573    2.4542998   -0.0001405 
H     3.3198367    1.3534702   -0.0004755 
H     3.4446552   -1.1821949   -0.0007518 
H     1.2933734   -2.4635419    0.0003211 
