18
Energy =
C    -1.2665971   -1.3526243    0.0007533 
N    -2.4302234   -0.6534230    0.0004240 
C    -2.4454311    0.7304226   -0.0001605 
C    -1.2668347    1.4149931   -0.0001887 
C    -0.0089930    0.7297473    0.0001838 
C     1.2147080    1.3954233   -0.0000096 
C     2.4388468    0.6888843   -0.0002243 
C     2.5361970   -0.7023993   -0.0002791 
B     1.2831055   -1.5399588    0.0002353 
C    -0.0310288   -0.7343513    0.0005023 
H    -1.3661505   -2.4392141    0.0010981 
H    -3.3129003   -1.1547364    0.0005033 
H    -3.4263852    1.1996865   -0.0006405 
H    -1.2936364    2.5057554   -0.0006396 
H     1.2244050    2.4877488   -0.0001652 
H     3.3520544    1.2952634   -0.0004457 
H     3.5462993   -1.1235455   -0.0006504 
H     1.2526645   -2.7476719    0.0003035 
