18
Energy =
N    -1.1974829   -1.3209271    0.0008173 
C    -2.4147682   -0.7013298    0.0003066 
C    -2.5513507    0.6647501   -0.0003630 
B    -1.3052309    1.5272653   -0.0001375 
C     0.0312719    0.7642716    0.0002457 
C     1.3051003    1.3857824    0.0000065 
C     2.4833546    0.6554044   -0.0002170 
C     2.4320264   -0.7528532   -0.0002298 
C     1.2133529   -1.4107794    0.0001723 
C     0.0194902   -0.6585894    0.0004699 
H    -1.1738670   -2.3361447    0.0012393 
H    -3.2583232   -1.3963521    0.0005029 
H    -3.5753744    1.0438749   -0.0008966 
H    -1.3269716    2.7317204   -0.0003077 
H     1.3400063    2.4774109   -0.0000923 
H     3.4493440    1.1622379   -0.0004420 
H     3.3567793   -1.3322826   -0.0005813 
H     1.1727430   -2.5034596    0.0001067 
