18
Energy =
N    -1.2436530   -1.3392062    0.0009163 
C    -2.4264104   -0.6851709    0.0003347 
C    -2.4526197    0.6944842   -0.0003569 
C    -1.2271075    1.3854221   -0.0001860 
C    -0.0021716    0.7237045    0.0001892 
C     1.2451792    1.4285613    0.0000440 
C     2.4483358    0.7709462   -0.0001302 
B     2.5083145   -0.7707244   -0.0003176 
C     1.1779737   -1.4832114    0.0001159 
C     0.0137656   -0.7351491    0.0004367 
H    -1.2456234   -2.3572904    0.0015470 
H    -3.3217786   -1.3043856    0.0004668 
H    -3.4056563    1.2183257   -0.0009413 
H    -1.2252352    2.4778551   -0.0004267 
H     1.1820138    2.5226057   -0.0000612 
H     3.3490231    1.3942736   -0.0002489 
H     3.5568862   -1.3658351   -0.0008411 
H     1.0688637   -2.5752052    0.0000594 
