18
Energy =
C    -1.2285414   -1.3751514    0.0007645 
N    -2.3962616   -0.7088788    0.0004196 
C    -2.4768535    0.6675299   -0.0002512 
C    -1.3030632    1.3865893   -0.0002769 
C    -0.0301791    0.7716174    0.0001308 
B     1.2930003    1.5394858    0.0000302 
C     2.5262074    0.6787671   -0.0001723 
C     2.4302981   -0.7256150   -0.0002427 
C     1.2136729   -1.4068745    0.0001708 
C    -0.0071200   -0.6927511    0.0003864 
H    -1.2950249   -2.4638144    0.0012427 
H    -3.2597019   -1.2451111    0.0006946 
H    -3.4770738    1.0921282   -0.0007399 
H    -1.3625497    2.4763587   -0.0006660 
H     1.2991321    2.7476930   -0.0000665 
H     3.5414996    1.0894680   -0.0004058 
H     3.3423826   -1.3325609   -0.0006143 
H     1.1902760   -2.4988802    0.0001958 
