18
Energy =
C    -1.1951100   -1.3735436    0.0008357 
C    -2.4220930   -0.7807571    0.0003416 
B    -2.5422883    0.7431767   -0.0004322 
C    -1.2158628    1.4522102   -0.0001828 
C    -0.0096287    0.7599960    0.0001654 
C     1.2773951    1.3944545    0.0000398 
C     2.4493163    0.6932683   -0.0001770 
C     2.4028004   -0.7318042   -0.0002413 
C     1.1945051   -1.3560457    0.0001520 
N    -0.0036778   -0.6571137    0.0004928 
H    -1.0378562   -2.4543591    0.0014299 
H    -3.2716878   -1.4691678    0.0005749 
H    -3.6010022    1.3149882   -0.0011540 
H    -1.1045571    2.5404874   -0.0003649 
H     1.2732724    2.4844698   -0.0000318 
H     3.4087269    1.2108385   -0.0003576 
H     3.3109690   -1.3317564   -0.0006022 
H     1.0868788   -2.4393418    0.0001117 
