18
Energy =
C    -1.3741926   -1.4710494    0.0009804 
C    -2.5026068   -0.6869119    0.0004059 
C    -2.4021366    0.7370426   -0.0002800 
C    -1.1912760    1.3708952   -0.0002482 
N     0.0000089    0.6685611    0.0002084 
C     1.1912822    1.3709049   -0.0000095 
C     2.4021646    0.7370190   -0.0002471 
C     2.5026291   -0.6869057   -0.0003098 
C     1.3741857   -1.4710700    0.0002324 
B     0.0000027   -0.8182877    0.0006051 
H    -1.4982086   -2.5573905    0.0015263 
H    -3.5039934   -1.1272923    0.0004602 
H    -3.3030782    1.3505835   -0.0008245 
H    -1.1062616    2.4590198   -0.0006396 
H     1.1062823    2.4590092   -0.0001192 
H     3.3030941    1.3505706   -0.0004582 
H     3.5039963   -1.1273070   -0.0008045 
H     1.4982079   -2.5573915    0.0001219 
