18
Energy =
N    -1.2005483   -1.3428242    0.0007474 
C    -2.4190229   -0.7569942    0.0003276 
B    -2.5527135    0.7500890   -0.0003833 
C    -1.2354614    1.4632224   -0.0001387 
C    -0.0087265    0.7595669    0.0001881 
C     1.2703974    1.3982811    0.0000186 
C     2.4438591    0.6775456   -0.0002091 
C     2.4171498   -0.7397644   -0.0002226 
C     1.2091066   -1.4063305    0.0001916 
C     0.0006795   -0.6751690    0.0004510 
H    -1.1376728   -2.3613243    0.0012032 
H    -3.2346703   -1.4850202    0.0006427 
H    -3.6316386    1.2795720   -0.0010256 
H    -1.1422227    2.5553803   -0.0002781 
H     1.2920319    2.4899296   -0.0000728 
H     3.4036416    1.1963345   -0.0004287 
H     3.3505273   -1.3033665   -0.0005741 
H     1.1753837   -2.4991280    0.0001630 
