18
Energy =
C    -1.3846544   -1.4795975    0.0009718 
C    -2.4963931   -0.6829155    0.0004864 
N    -2.3930617    0.6948478   -0.0002060 
C    -1.2193312    1.3806946   -0.0002611 
C    -0.0027684    0.7184052    0.0001779 
C     1.2386999    1.4322652   -0.0000249 
C     2.4268102    0.7436004   -0.0002400 
C     2.4928454   -0.6925806   -0.0003085 
C     1.3753452   -1.4952910    0.0001718 
B    -0.0018828   -0.8302295    0.0005541 
H    -1.5676399   -2.5577678    0.0014891 
H    -3.5257983   -1.0459988    0.0005398 
H    -3.2551679    1.2306807   -0.0007564 
H    -1.3245367    2.4696891   -0.0007429 
H     1.2466425    2.5278341   -0.0001084 
H     3.3656041    1.3017971   -0.0004393 
H     3.4946629   -1.1359452   -0.0007641 
H     1.5307240   -2.5794884    0.0000608 
