18
Energy =
B    -1.2961047   -1.4874370    0.0009445 
N    -2.4679419   -0.6688837    0.0004070 
C    -2.4264582    0.7124602   -0.0002639 
C    -1.2418922    1.3848772   -0.0002449 
C     0.0199744    0.6944527    0.0001534 
C     1.2441731    1.4056631   -0.0000517 
C     2.4527791    0.7278427   -0.0002746 
C     2.4820092   -0.6805812   -0.0002993 
C     1.2913443   -1.3932069    0.0001980 
C     0.0383801   -0.7382365    0.0005005 
H    -1.4272740   -2.6814117    0.0016482 
H    -3.3967033   -1.0812178    0.0004606 
H    -3.3843345    1.2333864   -0.0008161 
H    -1.2550826    2.4752061   -0.0006907 
H     1.2270122    2.4981236   -0.0001464 
H     3.3893801    1.2887719   -0.0004787 
H     3.4394056   -1.2041491   -0.0006842 
H     1.3114333   -2.4856600    0.0002383 
