18
Energy =
N    -1.2287883   -1.3472719    0.0008370 
C    -2.4263707   -0.7273722    0.0003524 
C    -2.4953514    0.6532445   -0.0003569 
C    -1.2896146    1.3809033   -0.0002147 
C    -0.0366704    0.7679707    0.0002191 
B     1.3043384    1.5349454    0.0000726 
C     2.5391628    0.6747868   -0.0001551 
C     2.4198914   -0.7155466   -0.0002468 
C     1.1848305   -1.4004032    0.0001370 
C    -0.0052023   -0.6844026    0.0004313 
H    -1.2058198   -2.3654354    0.0013131 
H    -3.3031506   -1.3733803    0.0006103 
H    -3.4670166    1.1431323   -0.0008991 
H    -1.3269245    2.4732302   -0.0004796 
H     1.2965005    2.7420632   -0.0000521 
H     3.5567837    1.0768383   -0.0004081 
H     3.3202871   -1.3401190   -0.0006354 
H     1.1632149   -2.4931835    0.0000751 
